avgflag_pertape = 'A','A','I','A','A'
fincl1 = 'extinct_sw_inp','extinct_lw_bnd7','extinct_lw_inp'
fincl2 = 'FLUT', 'PRECT', 'U200', 'V200', 'U850', 'V850', 'Z500', 'OMEGA500', 'UBOT', 'VBOT', 'TREFHT', 'TREFHTMN', 'TREFHTMX', 'QREFHT', 'TS', 'PS', 'TMQ', 'TUQ', 'TVQ'
fincl3 = 'PSL','T200','T500','U850','V850','UBOT','VBOT','TREFHT'
fincl4 = 'FLUT','U200','U850','PRECT','OMEGA500'
fincl5 = 'PRECT','PRECC'
mfilt = 1,30,120,120,240
nhtfrq = 0,-24,-6,-6,-3

